studies/australian_pv/source/MV21_328bus/lines.dss
new line.L_23 lineCode=ughv_400al_triplex_ug_3w_bundled bus1=B3365 bus2=B3392 length=0.000244629175110 units=km phases=3
new line.L_33 lineCode=uglv_240al_xlpe/nyl/pvc_ug_3w_bundled bus1=B1881 bus2=B2303 length=0.109327875034 units=km phases=3
new line.L_66 lineCode=ughv_400al_triplex_ug_3w_bundled bus1=B2398 bus2=B1339 length=0.000255748683551 units=km phases=3
new line.L_75 lineCode=ughv_400al_triplex_ug_3w_bundled bus1=B3313 bus2=B647 length=0.000244629175463 units=km phases=3
new line.L_97 lineCode=ughv_400al_triplex_ug_3w_bundled bus1=B805 bus2=B217 length=0.000200000000000 units=km phases=3
new line.L_123 lineCode=generic/hv bus1=B2339 bus2=B532 length=0.0337079411928 units=km phases=3
new line.L_156 lineCode=uglv_240al_xlpe/nyl/pvc_ug_3w_bundled bus1=B2627 bus2=B817 length=0.151049923070 units=km phases=3
new line.L_189 lineCode=ughv_400al_triplex_ug_3w_bundled bus1=B1828 bus2=B1297 length=0.000255748683551 units=km phases=3
new line.L_209 lineCode=ughv_400al_triplex_ug_3w_bundled bus1=B3016 bus2=B1383 length=0.000255748683198 units=km phases=3
new line.L_212 lineCode=ughv_400al_triplex_ug_3w_bundled bus1=B155 bus2=B993 length=0.000244629175463 units=km phases=3
new line.L_230 lineCode=uglv_240al_xlpe/nyl/pvc_ug_3w_bundled bus1=B2808 bus2=B973 length=0.0606353543162 units=km phases=3
new line.L_254 lineCode=ughv_240al_triplex_ug_3w_bundled bus1=B2776 bus2=B865 length=0.0128351512062 units=km phases=3
new line.L_255 lineCode=ughv_400al_triplex_ug_3w_bundled bus1=B282 bus2=B2776 length=0.000255748683551 units=km phases=3
new line.L_280 lineCode=ughv_400al_triplex_ug_3w_bundled bus1=B2622 bus2=B3367 length=0.000244629175463 units=km phases=3
new line.L_290 lineCode=ughv_400al_triplex_ug_3w_bundled bus1=B3150 bus2=B3254 length=0.000150000000000 units=km phases=3
new line.L_302 lineCode=ughv_400al_triplex_ug_3w_bundled bus1=B658 bus2=B678 length=0.000255748683551 units=km phases=3
new line.L_306 lineCode=ughv_400al_triplex_ug_3w_bundled bus1=B946 bus2=B766 length=0.000244629175110 units=km phases=3
new line.L_308 lineCode=ughv_400al_triplex_ug_3w_bundled bus1=B2580 bus2=B3150 length=0.000309277670859 units=km phases=3
new line.L_338 lineCode=pluto_lv_oh_3wire bus1=B805 bus2=B2580 length=0.0484950828006 units=km phases=3
new line.L_373 lineCode=ughv_400al_triplex_ug_3w_bundled bus1=B1647 bus2=B2463 length=0.000361565918630 units=km phases=3
new line.L_379 lineCode=ughv_400al_triplex_ug_3w_bundled bus1=B3139 bus2=B388 length=0.000255748683551 units=km phases=3
new line.L_402 lineCode=ughv_400al_triplex_ug_3w_bundled bus1=B2625 bus2=B1640 length=0.000244629175110 units=km phases=3
new line.L_413 lineCode=ughv_240al_triplex_ug_3w_bundled bus1=B881 bus2=B2703 length=0.00396314054549 units=km phases=3
new line.L_421 lineCode=ughv_400al_triplex_ug_3w_bundled bus1=B2590 bus2=B275 length=0.000255748683551 units=km phases=3
new line.L_427 lineCode=uglv_240al_xlpe/nyl/pvc_ug_3w_bundled bus1=B2627 bus2=B285 length=0.0215264259493 units=km phases=3
new line.L_430 lineCode=ughv_400al_triplex_ug_3w_bundled bus1=B2175 bus2=B2995 length=0.000244629175110 units=km phases=3
new line.L_458 lineCode=ughv_400al_triplex_ug_3w_bundled bus1=B2477 bus2=B2800 length=0.000244629175463 units=km phases=3
new line.L_500 lineCode=ughv_400al_triplex_ug_3w_bundled bus1=B2898 bus2=B1179 length=0.000255748683198 units=km phases=3
new line.L_513 lineCode=ughv_400al_triplex_ug_3w_bundled bus1=B356 bus2=B388 length=0.000354700571842 units=km phases=3
new line.L_522 lineCode=ughv_400al_triplex_ug_3w_bundled bus1=B1249 bus2=B1309 length=0.000200000000000 units=km phases=3
new line.L_528 lineCode=uglv_240al_xlpe/nyl/pvc_ug_3w_bundled bus1=B2068 bus2=B1365 length=0.0387890507978 units=km phases=3
new line.L_548 lineCode=moon_hv_oh_3wire bus1=B2788 bus2=B648 length=0.0822873767719 units=km phases=3
new line.L_551 lineCode=ughv_400al_triplex_ug_3w_bundled bus1=B777 bus2=B1176 length=0.000255748683198 units=km phases=3
new line.L_554 lineCode=uglv_240al_xlpe/nyl/pvc_ug_3w_bundled bus1=B1308 bus2=B1256 length=0.289407340168 units=km phases=3
new line.L_636 lineCode=uglv_240al_xlpe/nyl/pvc_ug_3w_bundled bus1=B564 bus2=B1388 length=0.101912444653 units=km phases=3
new line.L_655 lineCode=ughv_400al_triplex_ug_3w_bundled bus1=B2022 bus2=B1135 length=0.000600399133701 units=km phases=3
new line.L_662 lineCode=ughv_400al_triplex_ug_3w_bundled bus1=B2804 bus2=B1962 length=0.000361585089814 units=km phases=3
new line.L_671 lineCode=ughv_400al_triplex_ug_3w_bundled bus1=B673 bus2=B889 length=0.000255748683198 units=km phases=3
new line.L_673 lineCode=ughv_400al_triplex_ug_3w_bundled bus1=B2215 bus2=B2666 length=0.000255748683551 units=km phases=3
new line.L_681 lineCode=ughv_400al_triplex_ug_3w_bundled bus1=B1469 bus2=B172 length=0.000244629175817 units=km phases=3
new line.L_709 lineCode=ughv_400al_triplex_ug_3w_bundled bus1=B2093 bus2=B2666 length=0.000354706418731 units=km phases=3
new line.L_731 lineCode=ughv_400al_triplex_ug_3w_bundled bus1=B1648 bus2=B1844 length=0.000200000000000 units=km phases=3
new line.L_739 lineCode=uglv_240al_xlpe/nyl/pvc_ug_3w_bundled bus1=B478 bus2=B383 length=0.148137376175 units=km phases=3
new line.L_744 lineCode=ughv_400al_triplex_ug_3w_bundled bus1=B916 bus2=B993 length=0.000354701272602 units=km phases=3
new line.L_756 lineCode=ughv_400al_triplex_ug_3w_bundled bus1=B2350 bus2=B2666 length=0.000244629175463 units=km phases=3
new line.L_778 lineCode=ughv_400al_triplex_ug_3w_bundled bus1=B2804 bus2=B1367 length=0.000244826642534 units=km phases=3
new line.L_780 lineCode=ughv_400al_triplex_ug_3w_bundled bus1=B939 bus2=B449 length=0.000244629175463 units=km phases=3
new line.L_790 lineCode=ughv_240cu_xlpe/nyl/pvc_ug_3w_bundled bus1=B1981 bus2=B960 length=0.181887484973 units=km phases=3
new line.L_800 lineCode=pluto_lv_oh_3wire bus1=B24 bus2=B2903 length=0.0447764514196 units=km phases=3
new line.L_812 lineCode=ughv_240al_triplex_ug_3w_bundled bus1=B2926 bus2=B881 length=0.0998503177180 units=km phases=3
new line.L_814 lineCode=ughv_400al_triplex_ug_3w_bundled bus1=B1774 bus2=B1655 length=0.000255748683551 units=km phases=3
new line.L_837 lineCode=ughv_240al_triplex_ug_3w_bundled bus1=B49 bus2=B946 length=0.0211605277731 units=km phases=3
new line.L_845 lineCode=uglv_240al_xlpe/nyl/pvc_ug_3w_bundled bus1=B2857 bus2=B2391 length=0.178520843507 units=km phases=3
new line.L_861 lineCode=ughv_400al_triplex_ug_3w_bundled bus1=B817 bus2=B1330 length=0.000244629175463 units=km phases=3
new line.L_875 lineCode=ughv_240al_triplex_ug_3w_bundled bus1=B285 bus2=B377 length=0.189216196744 units=km phases=3
new line.L_878 lineCode=ughv_400al_triplex_ug_3w_bundled bus1=B77 bus2=B614 length=0.000244629175463 units=km phases=3
new line.L_891 lineCode=ughv_400al_triplex_ug_3w_bundled bus1=B566 bus2=B2800 length=0.000361574491287 units=km phases=3
new line.L_922 lineCode=ughv_400al_triplex_ug_3w_bundled bus1=B1212 bus2=B3271 length=0.000244629175463 units=km phases=3
new line.L_931 lineCode=ughv_400al_triplex_ug_3w_bundled bus1=B482 bus2=B2262 length=0.000255748683198 units=km phases=3
new line.L_946 lineCode=ughv_400al_triplex_ug_3w_bundled bus1=B814 bus2=B1690 length=0.000255748683198 units=km phases=3
new line.L_954 lineCode=ughv_400al_triplex_ug_3w_bundled bus1=B1942 bus2=B1504 length=0.000244629175463 units=km phases=3
new line.L_967 lineCode=ughv_400al_triplex_ug_3w_bundled bus1=B361 bus2=B212 length=0.000255748683198 units=km phases=3
new line.L_982 lineCode=uglv_240al_xlpe/nyl/pvc_ug_3w_bundled bus1=B1437 bus2=B2303 length=0.0519009252190 units=km phases=3
new line.L_983 lineCode=uglv_240al_xlpe/nyl/pvc_ug_3w_bundled bus1=B1887 bus2=B478 length=0.0987981716000 units=km phases=3
new line.L_987 lineCode=uglv_240al_xlpe/nyl/pvc_ug_3w_bundled bus1=B87 bus2=B1563 length=0.129626785633 units=km phases=3
new line.L_1012 lineCode=ughv_400al_triplex_ug_3w_bundled bus1=B587 bus2=B3399 length=0.000244629175817 units=km phases=3
new line.L_1060 lineCode=ughv_400al_triplex_ug_3w_bundled bus1=B1941 bus2=B1640 length=0.000255748683905 units=km phases=3
new line.L_1061 lineCode=ughv_400al_triplex_ug_3w_bundled bus1=B1903 bus2=B3367 length=0.000255748683198 units=km phases=3
new line.L_1075 lineCode=ughv_400al_triplex_ug_3w_bundled bus1=B3144 bus2=B1058 length=0.000255748683198 units=km phases=3
new line.L_1107 lineCode=ughv_400al_triplex_ug_3w_bundled bus1=B673 bus2=B3132 length=0.000361588429383 units=km phases=3
new line.L_1110 lineCode=ughv_400al_triplex_ug_3w_bundled bus1=B273 bus2=B804 length=0.000255748683198 units=km phases=3
new line.L_1176 lineCode=ughv_400al_triplex_ug_3w_bundled bus1=B2752 bus2=B1179 length=0.000244629175463 units=km phases=3
new line.L_1183 lineCode=uglv_240al_xlpe/nyl/pvc_ug_3w_bundled bus1=B1563 bus2=B611 length=0.105558160363 units=km phases=3
new line.L_1218 lineCode=ughv_240cu_xlpe/nyl/pvc_ug_3w_bundled bus1=B655 bus2=B2025 length=0.106733796128 units=km phases=3
new line.L_1233 lineCode=ughv_400al_triplex_ug_3w_bundled bus1=B246 bus2=B834 length=0.000244629175110 units=km phases=3
new line.L_1289 lineCode=ughv_400al_triplex_ug_3w_bundled bus1=B1899 bus2=B3056 length=0.000200000000000 units=km phases=3
new line.L_1336 lineCode=ughv_400al_triplex_ug_3w_bundled bus1=B824 bus2=B1339 length=0.000354699540723 units=km phases=3
new line.L_1379 lineCode=uglv_240al_xlpe/nyl/pvc_ug_3w_bundled bus1=B2604 bus2=B2192 length=0.211204472531 units=km phases=3
new line.L_1388 lineCode=ughv_400al_triplex_ug_3w_bundled bus1=B805 bus2=B2903 length=0.000200000000000 units=km phases=3
new line.L_1395 lineCode=moon_hv_oh_3wire bus1=B1357 bus2=B668 length=0.0702289764555 units=km phases=3
new line.L_1428 lineCode=uglv_240al_xlpe/nyl/pvc_ug_3w_bundled bus1=B2391 bus2=B262 length=0.0450271253128 units=km phases=3
new line.L_1448 lineCode=ughv_240cu_hdpe/nyl/pvc_ug_3w_bundled bus1=B3246 bus2=B1858 length=0.231949520926 units=km phases=3
new line.L_1467 lineCode=ughv_400al_triplex_ug_3w_bundled bus1=B1238 bus2=B3190 length=0.000244629175463 units=km phases=3
new line.L_1506 lineCode=ughv_400al_triplex_ug_3w_bundled bus1=B2050 bus2=B1037 length=0.000244629175463 units=km phases=3
new line.L_1551 lineCode=ughv_400al_triplex_ug_3w_bundled bus1=B2788 bus2=B378 length=0.000400000000000 units=km phases=3
new line.L_1606 lineCode=ughv_400al_triplex_ug_3w_bundled bus1=B3016 bus2=B2628 length=0.000346782457036 units=km phases=3
new line.L_1613 lineCode=ughv_240cu_hdpe/nyl/pvc_ug_3w_bundled bus1=B1812 bus2=B3029 length=0.127364857928 units=km phases=3
new line.L_1640 lineCode=ughv_400al_triplex_ug_3w_bundled bus1=B2246 bus2=B611 length=0.000200000000000 units=km phases=3
new line.L_1683 lineCode=ughv_400al_triplex_ug_3w_bundled bus1=B1975 bus2=B3367 length=0.000354689158156 units=km phases=3
new line.L_1690 lineCode=ughv_400al_triplex_ug_3w_bundled bus1=B3144 bus2=B1908 length=0.000255748683551 units=km phases=3
new line.L_1705 lineCode=ughv_400al_triplex_ug_3w_bundled bus1=B2700 bus2=B1257 length=0.000255748683551 units=km phases=3
new line.L_1753 lineCode=moon_hv_oh_3wire bus1=B836 bus2=B1135 length=0.0573160449214 units=km phases=3
new line.L_1775 lineCode=ughv_400al_triplex_ug_3w_bundled bus1=B1364 bus2=B325 length=0.000255748683551 units=km phases=3
new line.L_1785 lineCode=ughv_400al_triplex_ug_3w_bundled bus1=B743 bus2=B1569 length=0.000244629175463 units=km phases=3
new line.L_1788 lineCode=uglv_240al_xlpe/nyl/pvc_ug_3w_bundled bus1=B2232 bus2=B1973 length=0.122229266901 units=km phases=3
new line.L_1798 lineCode=ughv_400al_triplex_ug_3w_bundled bus1=B71 bus2=B2918 length=0.000244629175463 units=km phases=3
new line.L_1825 lineCode=ughv_400al_triplex_ug_3w_bundled bus1=B3365 bus2=B1689 length=0.000346787810811 units=km phases=3
new line.L_1834 lineCode=ughv_400al_triplex_ug_3w_bundled bus1=B843 bus2=B612 length=0.000354704883831 units=km phases=3
new line.L_1836 lineCode=ughv_400al_triplex_ug_3w_bundled bus1=B668 bus2=B1437 length=0.000400000000000 units=km phases=3
new line.L_1863 lineCode=ughv_400al_triplex_ug_3w_bundled bus1=B3267 bus2=B561 length=0.000244629175463 units=km phases=3
new line.L_1883 lineCode=uglv_240al_xlpe/nyl/pvc_ug_3w_bundled bus1=B515 bus2=B1825 length=0.115236584657 units=km phases=3
new line.L_1912 lineCode=generic/hv bus1=B1871 bus2=B1648 length=0.0592590885034 units=km phases=3
new line.L_1918 lineCode=ughv_400al_triplex_ug_3w_bundled bus1=B463 bus2=B548 length=0.000255748683551 units=km phases=3
new line.L_1940 lineCode=ughv_400al_xlpe/nyl/pvc_ug_3w_bundled bus1=B3011 bus2=B3254 length=0.0459295236538 units=km phases=3
new line.L_1950 lineCode=ughv_400al_triplex_ug_3w_bundled bus1=B77 bus2=B2444 length=0.000361572020265 units=km phases=3
new line.L_1954 lineCode=ughv_400al_triplex_ug_3w_bundled bus1=B642 bus2=B598 length=0.000200000000000 units=km phases=3
new line.L_1975 lineCode=ughv_240cu_xlpe/nyl/pvc_ug_3w_bundled bus1=B224 bus2=B3363 length=0.133634687485 units=km phases=3
new line.L_2004 lineCode=moon_hv_oh_3wire bus1=B1106 bus2=B1899 length=0.0406095008798 units=km phases=3
new line.L_2019 lineCode=ughv_400al_triplex_ug_3w_bundled bus1=B587 bus2=B786 length=0.000346757367360 units=km phases=3
new line.L_2043 lineCode=ughv_400al_triplex_ug_3w_bundled bus1=B2798 bus2=B3373 length=0.000244629175463 units=km phases=3
new line.L_2047 lineCode=ughv_95al_xlpe/nyl/pvc_ug_3w_bundled bus1=B1365 bus2=B1156 length=0.120651454721 units=km phases=3
new line.L_2098 lineCode=ughv_400al_triplex_ug_3w_bundled bus1=B503 bus2=B2389 length=0.000361582759710 units=km phases=3
new line.L_2131 lineCode=uglv_240al_xlpe/nyl/pvc_ug_3w_bundled bus1=B1225 bus2=B1308 length=0.215838499287 units=km phases=3
new line.L_2134 lineCode=uglv_240al_xlpe/nyl/pvc_ug_3w_bundled bus1=B1365 bus2=B3187 length=0.164419991867 units=km phases=3
new line.L_2135 lineCode=uglv_240al_xlpe/nyl/pvc_ug_3w_bundled bus1=B396 bus2=B713 length=0.180723786841 units=km phases=3
new line.L_2162 lineCode=ughv_400al_triplex_ug_3w_bundled bus1=B2090 bus2=B498 length=0.000244826658933 units=km phases=3
new line.L_2166 lineCode=moon_hv_oh_3wire bus1=B2954 bus2=B2232 length=0.0891890791546 units=km phases=3
new line.L_2182 lineCode=ughv_400al_triplex_ug_3w_bundled bus1=B3343 bus2=B2703 length=0.000244629175463 units=km phases=3
new line.L_2184 lineCode=ughv_400al_triplex_ug_3w_bundled bus1=B1305 bus2=B2463 length=0.000244629175110 units=km phases=3
new line.L_2223 lineCode=uglv_240al_xlpe/nyl/pvc_ug_3w_bundled bus1=B1937 bus2=B2561 length=0.151874601609 units=km phases=3
new line.L_2254 lineCode=ughv_400al_triplex_ug_3w_bundled bus1=B2906 bus2=B1640 length=0.000346779006458 units=km phases=3
new line.L_2295 lineCode=ughv_400al_triplex_ug_3w_bundled bus1=B2859 bus2=B993 length=0.000255748683198 units=km phases=3
new line.L_2296 lineCode=ughv_400al_triplex_ug_3w_bundled bus1=B2527 bus2=B3125 length=0.000244629175463 units=km phases=3
new line.L_2306 lineCode=ughv_400al_triplex_ug_3w_bundled bus1=B1714 bus2=B3171 length=0.000346766547626 units=km phases=3
new line.L_2313 lineCode=ughv_400al_triplex_ug_3w_bundled bus1=B962 bus2=B3301 length=0.000244629175463 units=km phases=3
new line.L_2314 lineCode=ughv_400al_triplex_ug_3w_bundled bus1=B843 bus2=B2834 length=0.000244629175110 units=km phases=3
new line.L_2335 lineCode=ughv_400al_xlpe/nyl/pvc_ug_3w_bundled bus1=B1631 bus2=B2109 length=0.139848235952 units=km phases=3
new line.L_2338 lineCode=ughv_400al_triplex_ug_3w_bundled bus1=B1714 bus2=B96 length=0.000244629175463 units=km phases=3
new line.L_2350 lineCode=generic/hv bus1=B2474 bus2=B2339 length=0.0317412058605 units=km phases=3
new line.L_2417 lineCode=ughv_400al_triplex_ug_3w_bundled bus1=B2534 bus2=B1386 length=0.000244629175463 units=km phases=3
new line.L_2444 lineCode=ughv_400al_xlpe/nyl/pvc_ug_3w_bundled bus1=B2589 bus2=B1037 length=0.0241411195656 units=km phases=3
new line.L_2473 lineCode=ughv_95al_xlpe/nyl/pvc_ug_3w_bundled bus1=B2192 bus2=B1102 length=0.163131593411 units=km phases=3
new line.L_2484 lineCode=ughv_400al_triplex_ug_3w_bundled bus1=B296 bus2=B1176 length=0.000244629175463 units=km phases=3
new line.L_2509 lineCode=uglv_240al_xlpe/nyl/pvc_ug_3w_bundled bus1=B933 bus2=B2489 length=0.0208593029160 units=km phases=3
new line.L_2520 lineCode=ughv_400al_triplex_ug_3w_bundled bus1=B440 bus2=B498 length=0.000255748683551 units=km phases=3
new line.L_2524 lineCode=ughv_400al_triplex_ug_3w_bundled bus1=B1844 bus2=B3147 length=0.000200000000000 units=km phases=3
new line.L_2530 lineCode=ughv_400al_triplex_ug_3w_bundled bus1=B673 bus2=B1619 length=0.000255937578296 units=km phases=3
new line.L_2532 lineCode=moon_hv_oh_3wire bus1=B1493 bus2=B1106 length=0.0307734308644 units=km phases=3
new line.L_2545 lineCode=ughv_240al_triplex_ug_3w_bundled bus1=B632 bus2=B2244 length=0.0216412506995 units=km phases=3
new line.L_2551 lineCode=uglv_240al_xlpe/nyl/pvc_ug_3w_bundled bus1=B632 bus2=B2172 length=0.0558087321735 units=km phases=3
new line.L_2611 lineCode=ughv_400al_triplex_ug_3w_bundled bus1=B843 bus2=B866 length=0.000255748683551 units=km phases=3
new line.L_2617 lineCode=ughv_240cu_xlpe/nyl/pvc_ug_3w_bundled bus1=B2150 bus2=B960 length=0.0868811398601 units=km phases=3
new line.L_2618 lineCode=moon_hv_oh_3wire bus1=B2022 bus2=B1357 length=0.0765103728136 units=km phases=3
new line.L_2632 lineCode=ughv_400al_triplex_ug_3w_bundled bus1=B1796 bus2=B388 length=0.000562840366136 units=km phases=3
new line.L_2667 lineCode=uglv_240al_xlpe/nyl/pvc_ug_3w_bundled bus1=B713 bus2=B1308 length=0.00299591246914 units=km phases=3
new line.L_2692 lineCode=uglv_240al_xlpe/nyl/pvc_ug_3w_bundled bus1=B736 bus2=B1934 length=0.0936841141678 units=km phases=3
new line.L_2704 lineCode=ughv_400al_triplex_ug_3w_bundled bus1=B1128 bus2=B3373 length=0.000255748683551 units=km phases=3
new line.L_2722 lineCode=ughv_400al_triplex_ug_3w_bundled bus1=B848 bus2=B185 length=0.000255748683198 units=km phases=3
new line.L_2736 lineCode=ughv_400al_triplex_ug_3w_bundled bus1=B3322 bus2=B330 length=0.000244629175463 units=km phases=3
new line.L_2773 lineCode=ughv_400al_triplex_ug_3w_bundled bus1=B2590 bus2=B2742 length=0.000354697802728 units=km phases=3
new line.L_2779 lineCode=ughv_400al_triplex_ug_3w_bundled bus1=B479 bus2=B380 length=0.000244629175463 units=km phases=3
new line.L_2797 lineCode=uglv_240al_xlpe/nyl/pvc_ug_3w_bundled bus1=B2192 bus2=B49 length=0.189782520687 units=km phases=3
new line.L_2817 lineCode=ughv_400al_triplex_ug_3w_bundled bus1=B2589 bus2=B2650 length=0.0186203680733 units=km phases=3
new line.L_2888 lineCode=moon_hv_oh_3wire bus1=B1899 bus2=B1309 length=0.0345163918731 units=km phases=3
new line.L_2902 lineCode=ughv_400al_triplex_ug_3w_bundled bus1=B3286 bus2=B1176 length=0.000354709356841 units=km phases=3
new line.L_2937 lineCode=uglv_240al_xlpe/nyl/pvc_ug_3w_bundled bus1=B1825 bus2=B1297 length=0.257317792275 units=km phases=3
new line.L_2952 lineCode=ughv_240cu_xlpe/nyl/pvc_ug_3w_bundled bus1=B3363 bus2=B1981 length=0.0764321225744 units=km phases=3
new line.L_2975 lineCode=ughv_400al_triplex_ug_3w_bundled bus1=B1774 bus2=B603 length=0.000354692912668 units=km phases=3
new line.L_2985 lineCode=ughv_400al_triplex_ug_3w_bundled bus1=B1309 bus2=B1685 length=0.000200000000000 units=km phases=3
new line.L_2986 lineCode=ughv_400al_triplex_ug_3w_bundled bus1=B2739 bus2=B1748 length=0.000255748683198 units=km phases=3
new line.L_2993 lineCode=ughv_400al_triplex_ug_3w_bundled bus1=B2007 bus2=B330 length=0.000255748683198 units=km phases=3
new line.L_3001 lineCode=ughv_400al_triplex_ug_3w_bundled bus1=B3276 bus2=B2463 length=0.000255748683551 units=km phases=3
new line.L_3007 lineCode=ughv_400al_triplex_ug_3w_bundled bus1=B1469 bus2=B979 length=0.000346788445297 units=km phases=3
new line.L_3034 lineCode=uglv_240al_xlpe/nyl/pvc_ug_3w_bundled bus1=B2489 bus2=B2080 length=0.0814361317289 units=km phases=3
new line.L_3056 lineCode=ughv_400al_triplex_ug_3w_bundled bus1=B2857 bus2=B3409 length=0.000244629175463 units=km phases=3
new line.L_3065 lineCode=ughv_400al_triplex_ug_3w_bundled bus1=B493 bus2=B3267 length=0.000255748683551 units=km phases=3
new line.L_3068 lineCode=ughv_240cu_hdpe/nyl/pvc_ug_3w_bundled bus1=B1858 bus2=B2150 length=0.0493690796633 units=km phases=3
new line.L_3087 lineCode=ughv_400al_triplex_ug_3w_bundled bus1=B2606 bus2=B388 length=0.000244629175463 units=km phases=3
new line.L_3169 lineCode=ughv_400al_triplex_ug_3w_bundled bus1=B446 bus2=B647 length=0.000346763913774 units=km phases=3
new line.L_3181 lineCode=generic/hv bus1=B1844 bus2=B2474 length=0.0716611649791 units=km phases=3
new line.L_3209 lineCode=ughv_400al_triplex_ug_3w_bundled bus1=B3290 bus2=B3301 length=0.000255748683551 units=km phases=3
new line.L_3215 lineCode=ughv_400al_triplex_ug_3w_bundled bus1=B90 bus2=B271 length=0.000255748683198 units=km phases=3
new line.L_3228 lineCode=ughv_400al_triplex_ug_3w_bundled bus1=B1469 bus2=B1322 length=0.000255748683198 units=km phases=3
new line.L_3301 lineCode=ughv_400al_triplex_ug_3w_bundled bus1=B3214 bus2=B2577 length=0.000255748683551 units=km phases=3
new line.L_3304 lineCode=ughv_400al_triplex_ug_3w_bundled bus1=B77 bus2=B1147 length=0.000255748683198 units=km phases=3
new line.L_3317 lineCode=ughv_400al_triplex_ug_3w_bundled bus1=B405 bus2=B3301 length=0.000361588439799 units=km phases=3
new line.L_3325 lineCode=ughv_400al_triplex_ug_3w_bundled bus1=B2001 bus2=B2157 length=0.000244629175463 units=km phases=3
new line.L_3344 lineCode=uglv_240al_xlpe/nyl/pvc_ug_3w_bundled bus1=B3212 bus2=B2808 length=0.173266640746 units=km phases=3
new line.L_3349 lineCode=ughv_400al_triplex_ug_3w_bundled bus1=B2238 bus2=B784 length=0.000200000000000 units=km phases=3
new line.L_3358 lineCode=ughv_400al_triplex_ug_3w_bundled bus1=B1140 bus2=B2407 length=0.000244629175110 units=km phases=3
new line.L_3362 lineCode=ughv_400al_triplex_ug_3w_bundled bus1=B462 bus2=B2755 length=0.000255748683551 units=km phases=3
new line.L_3373 lineCode=ughv_400al_xlpe/nyl/pvc_ug_3w_bundled bus1=B2109 bus2=B2589 length=0.0557239104196 units=km phases=3
new line.L_3397 lineCode=ughv_400al_triplex_ug_3w_bundled bus1=B1871 bus2=B2246 length=0.000200000000000 units=km phases=3
new line.L_3404 lineCode=ughv_400al_triplex_ug_3w_bundled bus1=B2389 bus2=B175 length=0.000255748683198 units=km phases=3
new line.L_3422 lineCode=ughv_400al_triplex_ug_3w_bundled bus1=B610 bus2=B498 length=0.000361592705934 units=km phases=3
new line.L_3490 lineCode=uglv_240al_xlpe/nyl/pvc_ug_3w_bundled bus1=B2240 bus2=B1536 length=0.151668521275 units=km phases=3
new line.L_3495 lineCode=uglv_240al_xlpe/nyl/pvc_ug_3w_bundled bus1=B2303 bus2=B1911 length=0.217912150170 units=km phases=3
new line.L_3506 lineCode=moon_hv_oh_3wire bus1=B1249 bus2=B2672 length=0.0767051982284 units=km phases=3
new line.L_3512 lineCode=ughv_400al_triplex_ug_3w_bundled bus1=B2521 bus2=B1748 length=0.000361600189900 units=km phases=3
new line.L_3564 lineCode=uglv_240al_xlpe/nyl/pvc_ug_3w_bundled bus1=B1461 bus2=B736 length=0.261653079854 units=km phases=3
new line.L_3575 lineCode=ughv_400al_triplex_ug_3w_bundled bus1=B2507 bus2=B330 length=0.000346773853172 units=km phases=3
new line.L_3631 lineCode=ughv_400al_triplex_ug_3w_bundled bus1=B587 bus2=B2131 length=0.000255748683198 units=km phases=3
new line.L_3659 lineCode=pluto_lv_oh_3wire bus1=B865 bus2=B1110 length=0.0602032636273 units=km phases=3
new line.L_3707 lineCode=ughv_400al_xlpe/nyl/pvc_ug_3w_bundled bus1=B698 bus2=B3232 length=0.0243667573818 units=km phases=3
new line.L_3719 lineCode=ughv_400al_triplex_ug_3w_bundled bus1=B1154 bus2=B2268 length=0.000244629175463 units=km phases=3
new line.L_3738 lineCode=ughv_400al_triplex_ug_3w_bundled bus1=B3063 bus2=B3373 length=0.000354710110517 units=km phases=3
new line.L_3779 lineCode=uglv_240al_xlpe/nyl/pvc_ug_3w_bundled bus1=B3029 bus2=B2627 length=0.0712222389491 units=km phases=3
new line.L_3787 lineCode=ughv_400al_triplex_ug_3w_bundled bus1=B3003 bus2=B391 length=0.000255748683551 units=km phases=3
new line.L_3810 lineCode=ughv_400al_triplex_ug_3w_bundled bus1=B1774 bus2=B775 length=0.000244629175110 units=km phases=3
new line.L_3821 lineCode=ughv_400al_xlpe/nyl/pvc_ug_3w_bundled bus1=B650 bus2=B834 length=0.00411519436175 units=km phases=3
new line.L_3827 lineCode=ughv_400al_triplex_ug_3w_bundled bus1=B2791 bus2=B1179 length=0.000353791229060 units=km phases=3
new line.L_3843 lineCode=ughv_240cu_xlpe/nyl/pvc_ug_3w_bundled bus1=B3246 bus2=B2020 length=0.107503395740 units=km phases=3
new line.L_3884 lineCode=moon_hv_oh_3wire bus1=B1490 bus2=B836 length=0.0518836083405 units=km phases=3
new line.L_3907 lineCode=ughv_240cu_hdpe/nyl/pvc_ug_3w_bundled bus1=B1027 bus2=B2025 length=0.123118799533 units=km phases=3
new line.L_3933 lineCode=ughv_400al_triplex_ug_3w_bundled bus1=B539 bus2=B2234 length=0.000244629175110 units=km phases=3
new line.L_3938 lineCode=ughv_400al_triplex_ug_3w_bundled bus1=B3365 bus2=B374 length=0.000255748683551 units=km phases=3
new line.L_3945 lineCode=uglv_240al_xlpe/nyl/pvc_ug_3w_bundled bus1=B378 bus2=B631 length=0.0702411996644 units=km phases=3
new line.L_3949 lineCode=ughv_400al_triplex_ug_3w_bundled bus1=B2982 bus2=B2800 length=0.000255748683198 units=km phases=3
new line.L_3950 lineCode=ughv_400al_xlpe/nyl/pvc_ug_3w_bundled bus1=B698 bus2=B1685 length=0.0825643356536 units=km phases=3
new line.L_3952 lineCode=uglv_240al_xlpe/nyl/pvc_ug_3w_bundled bus1=B2147 bus2=B391 length=0.00633828034655 units=km phases=3
new line.L_3965 lineCode=ughv_240al_triplex_ug_3w_bundled bus1=B1611 bus2=B937 length=0.0504427855637 units=km phases=3
new line.L_3980 lineCode=uglv_240al_xlpe/nyl/pvc_ug_3w_bundled bus1=B2465 bus2=B396 length=0.136433999657 units=km phases=3
new line.L_3988 lineCode=pluto_lv_oh_3wire bus1=B1110 bus2=B24 length=0.0608670566294 units=km phases=3
new line.L_4003 lineCode=ughv_400al_triplex_ug_3w_bundled bus1=B1319 bus2=B1748 length=0.000255748683551 units=km phases=3
new line.L_4008 lineCode=ughv_400al_triplex_ug_3w_bundled bus1=B3196 bus2=B467 length=0.000244629175463 units=km phases=3
new line.L_4015 lineCode=ughv_240al_triplex_ug_3w_bundled bus1=B351 bus2=B933 length=0.0318818226876 units=km phases=3
new line.L_4023 lineCode=uglv_240al_xlpe/nyl/pvc_ug_3w_bundled bus1=B3396 bus2=B1881 length=0.190663454826 units=km phases=3
new line.L_4067 lineCode=ughv_400al_triplex_ug_3w_bundled bus1=B2548 bus2=B3267 length=0.000346758865565 units=km phases=3
new line.L_4082 lineCode=ughv_400al_triplex_ug_3w_bundled bus1=B2119 bus2=B1339 length=0.000244629175110 units=km phases=3
new line.L_4089 lineCode=ughv_400al_triplex_ug_3w_bundled bus1=B1714 bus2=B1127 length=0.000255748683198 units=km phases=3
new line.L_4102 lineCode=moon_hv_oh_3wire bus1=B2672 bus2=B1490 length=0.0853914633836 units=km phases=3
new line.L_4169 lineCode=ughv_400al_triplex_ug_3w_bundled bus1=B2590 bus2=B936 length=0.000255748683198 units=km phases=3
new line.L_4203 lineCode=ughv_240al_triplex_ug_3w_bundled bus1=B937 bus2=B3048 length=0.00328020429298 units=km phases=3
new line.L_4218 lineCode=uglv_240al_xlpe/nyl/pvc_ug_3w_bundled bus1=B658 bus2=B564 length=0.0231871789449 units=km phases=3
new line.L_4221 lineCode=ughv_400al_triplex_ug_3w_bundled bus1=B2289 bus2=B3309 length=0.000244629175463 units=km phases=3
new line.L_4260 lineCode=ughv_400al_triplex_ug_3w_bundled bus1=B2804 bus2=B1524 length=0.000255748683198 units=km phases=3
new line.L_4266 lineCode=ughv_400al_triplex_ug_3w_bundled bus1=B2389 bus2=B712 length=0.000255748683551 units=km phases=3
new line.L_4314 lineCode=ughv_400al_triplex_ug_3w_bundled bus1=B532 bus2=B2954 length=0.000592170452128 units=km phases=3
new line.L_4318 lineCode=ughv_400al_triplex_ug_3w_bundled bus1=B1765 bus2=B169 length=0.000255748683198 units=km phases=3
new line.L_4330 lineCode=ughv_400al_triplex_ug_3w_bundled bus1=B426 bus2=B3198 length=0.000200000000000 units=km phases=3
new line.L_4339 lineCode=ughv_240cu_xlpe/nyl/pvc_ug_3w_bundled bus1=B1726 bus2=B224 length=0.211157573879 units=km phases=3
new line.L_4432 lineCode=ughv_400al_triplex_ug_3w_bundled bus1=B181 bus2=B2439 length=0.000244629175463 units=km phases=3
new line.L_4462 lineCode=ughv_400al_triplex_ug_3w_bundled bus1=B853 bus2=B1937 length=0.000354700571842 units=km phases=3
new line.L_4505 lineCode=moon_hv_oh_3wire bus1=B2770 bus2=B1493 length=0.0493895315355 units=km phases=3
new line.L_4539 lineCode=moon_hv_oh_3wire bus1=B648 bus2=B2770 length=0.0330031334221 units=km phases=3
new line.L_4585 lineCode=uglv_240al_xlpe/nyl/pvc_ug_3w_bundled bus1=B2369 bus2=B396 length=0.184434104278 units=km phases=3
new line.L_4604 lineCode=ughv_400al_xlpe/nyl/pvc_ug_3w_bundled bus1=B1421 bus2=B1631 length=0.0591600563524 units=km phases=3
new line.L_4609 lineCode=ughv_400al_triplex_ug_3w_bundled bus1=B3016 bus2=B896 length=0.000244629175463 units=km phases=3
new line.L_4616 lineCode=ughv_400al_triplex_ug_3w_bundled bus1=B383 bus2=B637 length=0.000255748683551 units=km phases=3
new line.L_4619 lineCode=ughv_240al_triplex_ug_3w_bundled bus1=B2355 bus2=B1911 length=0.0328389626690 units=km phases=3
new line.L_4630 lineCode=ughv_400al_triplex_ug_3w_bundled bus1=B3144 bus2=B2583 length=0.000354689602424 units=km phases=3
new line.L_4693 lineCode=ughv_400al_triplex_ug_3w_bundled bus1=B370 bus2=B647 length=0.000255748683551 units=km phases=3
new line.L_4704 lineCode=ughv_240al_triplex_ug_3w_bundled bus1=B2172 bus2=B262 length=0.149633470013 units=km phases=3
